# b3lyp/6-31g* punch=mo iop(3/33=1) nosymm 

04/10/07: Geometry from napthalene_b3lyp_of.log and reorientated to put long axis along x, medium axis along y, normal axis along z,
geometric centre on origin.

0 1
C -2.4336 -0.70848 0.0
C -1.24478 -1.40258 0.0
C -1.80909e-06 -0.716892 0.0
C 2.38563e-06 0.716891 0.0
C -1.24476 1.40257 0.0
C -2.4336 0.708481 0.0
H 1.24204 -2.49027 0.0
H -3.37834 -1.24559 0.0
H -1.24204 -2.49028 0.0
C 1.24476 -1.40258 0.0
C 1.24478 1.40258 0.0
H -1.24204 2.49027 0.0
H -3.37833 1.24559 0.0
C 2.4336 0.708481 0.0
C 2.43359 -0.70848 0.0
H 1.24203 2.49028 0.0
H 3.37835 1.24559 0.0
H 3.37834 -1.24559 0.0
C -2.4336 -0.70848 6.5
C -1.24478 -1.40258 6.5
C -1.80909e-06 -0.716892 6.5
C 2.38563e-06 0.716891 6.5
C -1.24476 1.40257 6.5
C -2.4336 0.708481 6.5
H 1.24204 -2.49027 6.5
H -3.37834 -1.24559 6.5
H -1.24204 -2.49028 6.5
C 1.24476 -1.40258 6.5
C 1.24478 1.40258 6.5
H -1.24204 2.49027 6.5
H -3.37833 1.24559 6.5
C 2.4336 0.708481 6.5
C 2.43359 -0.70848 6.5
H 1.24203 2.49028 6.5
H 3.37835 1.24559 6.5
H 3.37834 -1.24559 6.5

